openpy_fx_tools_dss/IMEX_to_DSS/xlsx_DSS_xlsx/Examples/13NodeIEEE/xlsx_files/Transformer_13nodeIEEE.dss
New "Transformer.sub" phases=3 windings=2 buses=[sourcebus,  650.1.2.3.0] conns=[delta, wye] kVs=[115.0, 4.16] kVAs=[5000.0, 5000.0] taps=[1.0, 1.0] %Rs=[0.0005, 0.0005] normamps=27.6124041786343 emergamps=37.6532784254104 normhkVA=5500.0 emerghkVA=7500 RdcOhms=4.90325333333333e-06 XHL=0.008 %loadloss=0.001 Xscarray=[0.008] 
New "Transformer.reg1" phases=1 windings=2 buses=[650.1,  rg60.1] conns=[wye, wye] kVs=[2.4, 2.4] kVAs=[1666.0, 1666.0] taps=[1.0, 1.05625] %Rs=[0.005, 0.005] normamps=763.583333333333 emergamps=1041.25 normhkVA=1832.6 emerghkVA=2499 RdcOhms=0.000146938775510204 XHL=0.01 %loadloss=0.01 Xscarray=[0.01] 
New "Transformer.reg2" phases=1 windings=2 buses=[650.2,  rg60.2] conns=[wye, wye] kVs=[2.4, 2.4] kVAs=[1666.0, 1666.0] taps=[1.0, 1.0375] %Rs=[0.005, 0.005] normamps=763.583333333333 emergamps=1041.25 normhkVA=1832.6 emerghkVA=2499 RdcOhms=0.000146938775510204 XHL=0.01 %loadloss=0.01 Xscarray=[0.01] 
New "Transformer.reg3" phases=1 windings=2 buses=[650.3,  rg60.3] conns=[wye, wye] kVs=[2.4, 2.4] kVAs=[1666.0, 1666.0] taps=[1.0, 1.05625] %Rs=[0.005, 0.005] normamps=763.583333333333 emergamps=1041.25 normhkVA=1832.6 emerghkVA=2499 RdcOhms=0.000146938775510204 XHL=0.01 %loadloss=0.01 Xscarray=[0.01] 
New "Transformer.xfm1" phases=3 windings=2 buses=[633.1.2.3.0,  634.1.2.3.0] conns=[wye, wye] kVs=[4.16, 0.48] kVAs=[500.0, 500.0] taps=[1.0, 1.0] %Rs=[0.55, 0.55] normamps=76.3323673207438 emergamps=104.089591801014 normhkVA=550.0 emerghkVA=750 RdcOhms=0.00071808 XHL=2.0 %loadloss=1.1 Xscarray=[2.0] 
