openpy_fx_tools_dss/IMEX_to_DSS/xlsx_DSS_xlsx/Examples/13NodeIEEE/xlsx_files/RegControl_13nodeIEEE.dss
New "RegControl.reg1" transformer=reg1 winding=2 vreg=122 band=2 ptratio=20 CTprim=700 R=3 X=9 delay=15 revvreg=120 revband=3 tapdelay=2 maxtapchange=16 tapwinding=2 revThreshold=100 revDelay=60 EventLog=Yes RemotePTRatio=20 TapNum=9 basefreq=60 enabled=Yes 
New "RegControl.reg2" transformer=reg2 winding=2 vreg=122 band=2 ptratio=20 CTprim=700 R=3 X=9 delay=15 revvreg=120 revband=3 tapdelay=2 maxtapchange=16 tapwinding=2 revThreshold=100 revDelay=60 EventLog=Yes RemotePTRatio=20 TapNum=6 basefreq=60 enabled=Yes 
New "RegControl.reg3" transformer=reg3 winding=2 vreg=122 band=2 ptratio=20 CTprim=700 R=3 X=9 delay=15 revvreg=120 revband=3 tapdelay=2 maxtapchange=16 tapwinding=2 revThreshold=100 revDelay=60 EventLog=Yes RemotePTRatio=20 TapNum=9 basefreq=60 enabled=Yes 
