OpenPy_fx_tools_dss/IMEX_to_DSS/xlsx_DSS_xlsx/Examples/13NodeIEEE/xlsx_files/13nodeIEEE_VLN_Node.Txt

LINE-GROUND and LINE-LINE VOLTAGES BY BUS & NODE

Bus       Node    VLN (kV)   Angle      pu     Base kV    Node-Node   VLL (kV)  Angle      pu

SOURCEBUS 1       39.447 /_   61.7   0.59412   115.000        1-2     102.83 /_   79.5   0.89421
   -      2       66.392 /_  -90.0   0.99995   115.000        2-3      99.83 /_  -79.2   0.86809
   -      3       36.785 /_  120.6   0.55403   115.000        3-1     37.556 /_ -175.3   0.32657
RG60 .... 1      0.13159 /_   99.6   0.47483     0.480        1-2     2.4861 /_   80.5    5.1794
   -      2       2.3621 /_ -100.5    8.5236     0.480        2-3     4.5751 /_  -90.0    9.5314
   -      3        2.293 /_  100.8    8.2742     0.480        3-1     2.1615 /_  100.9     4.503
632 ..... 1      0.14143 /_   90.8   0.51035     0.480        1-2     2.4169 /_   78.7    5.0352
   -      2       2.2788 /_ -102.1    8.2229     0.480        2-3     4.4084 /_  -92.5    9.1842
   -      3        2.194 /_   97.4    7.9171     0.480        3-1     2.0536 /_   97.9    4.2784
670 ..... 1      0.13843 /_   87.0   0.49951     0.480        1-2      2.407 /_   78.3    5.0146
   -      2       2.2703 /_ -102.2    8.1922     0.480        2-3     4.3783 /_  -93.1    9.1216
   -      3       2.1665 /_   96.4    7.8176     0.480        3-1       2.03 /_   97.0    4.2292
671 ..... 1      0.13465 /_   80.2   0.48588     0.480        1-2     2.3914 /_   77.6    4.9822
   -      2       2.2569 /_ -102.5     8.144     0.480        2-3       4.33 /_  -94.3    9.0209
   -      3       2.1215 /_   94.5    7.6552     0.480        3-1     1.9913 /_   95.5    4.1486
680 ..... 1      0.13465 /_   80.2   0.48588     0.480        1-2     2.3914 /_   77.6    4.9822
   -      2       2.2569 /_ -102.5     8.144     0.480        2-3       4.33 /_  -94.3    9.0209
   -      3       2.1215 /_   94.5    7.6552     0.480        3-1     1.9913 /_   95.5    4.1486
633 ..... 1      0.14175 /_   90.4   0.51149     0.480        1-2     2.4109 /_   78.6    5.0228
   -      2       2.2723 /_ -102.1    8.1995     0.480        2-3     4.3971 /_  -92.5    9.1606
   -      3       2.1888 /_   97.4    7.8981     0.480        3-1     2.0482 /_   97.8     4.267
645 ..... 2        2.254 /_ -102.2   0.93847     4.160        2-3     4.3782 /_  -92.5    1.0525
   -      3       2.1893 /_   97.4   0.91152     4.160
646 ..... 2       2.2488 /_ -102.2   0.93631     4.160        2-3     4.3674 /_  -92.5    1.0499
   -      3       2.1838 /_   97.5   0.90925     4.160
692 ..... 1      0.13467 /_   80.2   0.48596     0.480        1-2     2.3915 /_   77.6    4.9822
   -      2       2.2569 /_ -102.5     8.144     0.480        2-3     4.3299 /_  -94.3    9.0206
   -      3       2.1213 /_   94.5    7.6546     0.480        3-1     1.9911 /_   95.5    4.1482
675 ..... 1      0.13135 /_   80.7   0.47398     0.480        1-2     2.3916 /_   77.6    4.9826
   -      2       2.2605 /_ -102.6    8.1568     0.480        2-3      4.325 /_  -94.4    9.0104
   -      3        2.113 /_   94.5    7.6247     0.480        3-1     1.9857 /_   95.4    4.1368
684 ..... 1      0.13413 /_   79.3   0.48399     0.480
   -      3       2.1169 /_   94.4    7.6386     0.480        3-1     1.9877 /_   95.4     4.141
611 ..... 3       2.1124 /_   94.2   0.87951     4.160
652 ..... 1      0.13337 /_   79.4   0.48125     0.480
634 ..... 1            0 /_    0.0         0   115.000        1-2    0.25686 /_   77.4 0.0022336
   -      2      0.25686 /_ -102.6 0.0038687   115.000        2-3    0.49706 /_  -93.1 0.0043223
   -      3      0.24744 /_   96.8 0.0037268   115.000        3-1    0.24744 /_   96.8 0.0021517
650 ..... 1      0.11963 /_   99.6  0.049808     4.160        1-2     2.2603 /_   80.5   0.54335
   -      2       2.1476 /_ -100.5   0.89418     4.160        2-3     4.1596 /_  -90.0   0.99991
   -      3       2.0848 /_  100.8   0.86804     4.160        3-1     1.9652 /_  100.9   0.47242
