openpy_fx_tools_dss/IMEX_to_DSS/xlsx_DSS_xlsx/Examples/13NodeIEEE/xlsx_files/13nodeIEEE_VLN_elem.Txt

NODE-GROUND VOLTAGES BY CIRCUIT ELEMENT

Power Delivery Elements

Bus       (node ref)  Phase    Magnitude, kV (pu)    Angle

ELEMENT = "Vsource.SOURCE"
SOURCEBUS  (  1)    1           66.397 (       1) /_   30.0
SOURCEBUS  (  2)    2           66.395 (       1) /_  -90.0
SOURCEBUS  (  3)    3           66.393 (       1) /_  150.0
------------
SOURCEBUS  (  0)    0                0 (       0) /_    0.0
SOURCEBUS  (  0)    0                0 (       0) /_    0.0
SOURCEBUS  (  0)    0                0 (       0) /_    0.0

ELEMENT = "Line.650632"
RG60       (  4)    1           2.5216 (    1.05) /_    0.0
RG60       (  5)    2           2.4916 (   1.037) /_ -120.0
RG60       (  6)    3           2.5364 (   1.056) /_  120.0
------------
632        (  7)    1           2.4748 (    1.03) /_   -0.9
632        (  8)    2           2.4297 (   1.012) /_ -121.7
632        (  9)    3           2.4264 (    1.01) /_  117.2

ELEMENT = "Line.632670"
632        (  7)    1           2.4748 (    1.03) /_   -0.9
632        (  8)    2           2.4297 (   1.012) /_ -121.7
632        (  9)    3           2.4264 (    1.01) /_  117.2
------------
670        ( 10)    1           2.4665 (   1.027) /_   -1.2
670        ( 11)    2           2.4231 (   1.009) /_ -121.9
670        ( 12)    3           2.3968 (  0.9979) /_  116.4

ELEMENT = "Line.670671"
670        ( 10)    1           2.4665 (   1.027) /_   -1.2
670        ( 11)    2           2.4231 (   1.009) /_ -121.9
670        ( 12)    3           2.3968 (  0.9979) /_  116.4
------------
671        ( 13)    1           2.4466 (   1.019) /_   -1.9
671        ( 14)    2           2.4161 (   1.006) /_ -122.4
671        ( 15)    3           2.3478 (  0.9775) /_  114.9

ELEMENT = "Line.671680"
671        ( 13)    1           2.4466 (   1.019) /_   -1.9
671        ( 14)    2           2.4161 (   1.006) /_ -122.4
671        ( 15)    3           2.3478 (  0.9775) /_  114.9
------------
680        ( 16)    1           2.4466 (   1.019) /_   -1.9
680        ( 17)    2           2.4161 (   1.006) /_ -122.4
680        ( 18)    3           2.3478 (  0.9775) /_  114.9

ELEMENT = "Line.632633"
632        (  7)    1           2.4748 (    1.03) /_   -0.9
632        (  8)    2           2.4297 (   1.012) /_ -121.7
632        (  9)    3           2.4264 (    1.01) /_  117.2
------------
633        ( 19)    1           2.4677 (   1.027) /_   -0.9
633        ( 20)    2            2.425 (    1.01) /_ -121.8
633        ( 21)    3           2.4199 (   1.008) /_  117.2

ELEMENT = "Line.632645"
632        (  9)    3           2.4264 (    1.01) /_  117.2
632        (  8)    2           2.4297 (   1.012) /_ -121.7
------------
645        ( 22)    3           2.4219 (   1.008) /_  117.3
645        ( 23)    2           2.4074 (   1.002) /_ -121.9

ELEMENT = "Line.645646"
645        ( 22)    3           2.4219 (   1.008) /_  117.3
645        ( 23)    2           2.4074 (   1.002) /_ -121.9
------------
646        ( 24)    3           2.4171 (   1.006) /_  117.3
646        ( 25)    2           2.4034 (   1.001) /_ -122.0

ELEMENT = "Line.692675"
692        ( 26)    1           0.3033 (   1.094) /_   97.2
692        ( 27)    2           2.4161 (   8.718) /_ -122.4
692        ( 28)    3           2.3476 (   8.471) /_  114.9
------------
675        ( 29)    1          0.29942 (    1.08) /_   97.3
675        ( 30)    2            2.419 (   8.729) /_ -122.4
675        ( 31)    3           2.3393 (   8.441) /_  114.8

ELEMENT = "Line.671684"
671        ( 13)    1           2.4466 (   1.019) /_   -1.9
671        ( 15)    3           2.3478 (  0.9775) /_  114.9
------------
684        ( 32)    1            2.442 (   1.017) /_   -1.9
684        ( 33)    3           2.3428 (  0.9754) /_  114.8

ELEMENT = "Line.684611"
684        ( 33)    3           2.3428 (  0.9754) /_  114.8
------------
611        ( 34)    3            2.338 (  0.9734) /_  114.7

ELEMENT = "Line.684652"
684        ( 32)    1            2.442 (   1.017) /_   -1.9
------------
652        ( 35)    1           2.4285 (   1.011) /_   -1.9

ELEMENT = "Line.671692"
671        (  0)    0                0 (       0) /_    0.0
671        ( 14)    2           2.4161 (   1.006) /_ -122.4
671        ( 15)    3           2.3478 (  0.9775) /_  114.9
------------
692        (  0)    0                0 (       0) /_    0.0
692        ( 27)    2           2.4161 (   8.718) /_ -122.4
692        ( 28)    3           2.3476 (   8.471) /_  114.9

ELEMENT = "Transformer.SUB"
SOURCEBUS  (  1)    1           66.397 (       1) /_   30.0
SOURCEBUS  (  2)    2           66.395 (       1) /_  -90.0
SOURCEBUS  (  3)    3           66.393 (       1) /_  150.0
SOURCEBUS  (  0)    0                0 (       0) /_    0.0
------------
650        ( 39)    1           2.4017 (       1) /_    0.0
650        ( 40)    2           2.4018 (       1) /_ -120.0
650        ( 41)    3           2.4016 (  0.9999) /_  120.0
650        (  0)    0                0 (       0) /_    0.0

ELEMENT = "Transformer.REG1"
650        ( 39)    1           2.4017 (       1) /_    0.0
650        (  0)    0                0 (       0) /_    0.0
------------
RG60       (  4)    1           2.5216 (    1.05) /_    0.0
RG60       (  0)    0                0 (       0) /_    0.0

ELEMENT = "Transformer.REG2"
650        ( 40)    2           2.4018 (       1) /_ -120.0
650        (  0)    0                0 (       0) /_    0.0
------------
RG60       (  5)    2           2.4916 (   1.037) /_ -120.0
RG60       (  0)    0                0 (       0) /_    0.0

ELEMENT = "Transformer.REG3"
650        ( 41)    3           2.4016 (  0.9999) /_  120.0
650        (  0)    0                0 (       0) /_    0.0
------------
RG60       (  6)    3           2.5364 (   1.056) /_  120.0
RG60       (  0)    0                0 (       0) /_    0.0

ELEMENT = "Transformer.XFM1"
633        ( 19)    1           2.4677 (   1.027) /_   -0.9
633        ( 20)    2            2.425 (    1.01) /_ -121.8
633        ( 21)    3           2.4199 (   1.008) /_  117.2
633        (  0)    0                0 (       0) /_    0.0
------------
634        ( 36)    1          0.27815 (   1.004) /_   -1.6
634        ( 37)    2          0.27456 (  0.9907) /_ -122.3
634        ( 38)    3          0.27397 (  0.9886) /_  116.8
634        (  0)    0                0 (       0) /_    0.0

ELEMENT = "Capacitor.CAP1"
675        (  0)    0                0 (       0) /_    0.0
675        ( 30)    2            2.419 (   8.729) /_ -122.4
675        ( 31)    3           2.3393 (   8.441) /_  114.8
------------
675        (  0)    0                0 (       0) /_    0.0
675        (  0)    0                0 (       0) /_    0.0
675        (  0)    0                0 (       0) /_    0.0

ELEMENT = "Capacitor.CAP2"
611        ( 34)    3            2.338 (  0.9734) /_  114.7
------------
611        (  0)    0                0 (       0) /_    0.0

= = = = = = = = = = = = = = = = = = =  = = = = = = = = = = =  = =

Power Conversion Elements

Bus       (node ref)  Phase    Magnitude, kV (pu)    Angle

ELEMENT = "Load.671"
671        ( 13)    1           2.4466 (   1.019) /_   -1.9
671        ( 14)    2           2.4161 (   1.006) /_ -122.4
671        ( 15)    3           2.3478 (  0.9775) /_  114.9
671        (  0)    0                0 (       0) /_    0.0

ELEMENT = "Load.634A"
634        ( 36)    1          0.27815 (   1.004) /_   -1.6
634        (  0)    0                0 (       0) /_    0.0

ELEMENT = "Load.634B"
634        ( 37)    2          0.27456 (  0.9907) /_ -122.3
634        (  0)    0                0 (       0) /_    0.0

ELEMENT = "Load.634C"
634        ( 38)    3          0.27397 (  0.9886) /_  116.8
634        (  0)    0                0 (       0) /_    0.0

ELEMENT = "Load.645"
645        ( 23)    2           2.4074 (   1.002) /_ -121.9
645        (  0)    0                0 (       0) /_    0.0

ELEMENT = "Load.646"
646        ( 25)    2           2.4034 (   1.001) /_ -122.0
646        ( 24)    3           2.4171 (   1.006) /_  117.3

ELEMENT = "Load.692"
692        ( 28)    3           2.3476 (   8.471) /_  114.9
692        ( 26)    1           0.3033 (   1.094) /_   97.2

ELEMENT = "Load.675A"
675        ( 29)    1          0.29942 (    1.08) /_   97.3
675        (  0)    0                0 (       0) /_    0.0

ELEMENT = "Load.675B"
675        ( 30)    2            2.419 (   8.729) /_ -122.4
675        (  0)    0                0 (       0) /_    0.0

ELEMENT = "Load.675C"
675        ( 31)    3           2.3393 (   8.441) /_  114.8
675        (  0)    0                0 (       0) /_    0.0

ELEMENT = "Load.611"
611        ( 34)    3            2.338 (  0.9734) /_  114.7
611        (  0)    0                0 (       0) /_    0.0

ELEMENT = "Load.652"
652        ( 35)    1           2.4285 (   1.011) /_   -1.9
652        (  0)    0                0 (       0) /_    0.0

ELEMENT = "Load.670A"
670        ( 10)    1           2.4665 (   1.027) /_   -1.2
670        (  0)    0                0 (       0) /_    0.0

ELEMENT = "Load.670B"
670        ( 11)    2           2.4231 (   1.009) /_ -121.9
670        (  0)    0                0 (       0) /_    0.0

ELEMENT = "Load.670C"
670        ( 12)    3           2.3968 (  0.9979) /_  116.4
670        (  0)    0                0 (       0) /_    0.0

